<nodes>
    <node id="junction1" x="0" y="0" type="traffic_light"/>
    <node id="north_end" x="0" y="100"/>
    <node id="south_end" x="0" y="-100"/>
    <node id="east_end" x="100" y="0"/>
    <node id="west_end" x="-100" y="0"/>
</nodes>
