<?xml version="1.0" encoding="UTF-8"?>

<!-- generated on 2025-08-08 22:44:41 by Eclipse SUMO netconvert Version 1.24.0
<netconvertConfiguration xmlns:xsi="http://www.w3.org/2001/XMLSchema-instance" xsi:noNamespaceSchemaLocation="http://sumo.dlr.de/xsd/netconvertConfiguration.xsd">

    <input>
        <node-files value="network.nod.xml"/>
        <edge-files value="network.edg.xml"/>
    </input>

    <output>
        <output-file value="network.net.xml"/>
    </output>

    <tls_building>
        <tls.guess value="true"/>
    </tls_building>

</netconvertConfiguration>
-->

<net version="1.20" junctionCornerDetail="5" limitTurnSpeed="5.50" xmlns:xsi="http://www.w3.org/2001/XMLSchema-instance" xsi:noNamespaceSchemaLocation="http://sumo.dlr.de/xsd/net_file.xsd">

    <location netOffset="100.00,100.00" convBoundary="0.00,0.00,200.00,200.00" origBoundary="-100.00,-100.00,100.00,100.00" projParameter="!"/>

    <edge id=":east_end_0" function="internal">
        <lane id=":east_end_0_0" index="0" speed="3.65" length="4.67" shape="200.00,98.40 201.20,99.20 201.60,100.00 201.20,100.80 200.00,101.60"/>
    </edge>
    <edge id=":junction1_0" function="internal">
        <lane id=":junction1_0_0" index="0" speed="6.51" length="9.03" shape="95.20,110.40 94.85,107.95 93.80,106.20 92.05,105.15 89.60,104.80"/>
    </edge>
    <edge id=":junction1_1" function="internal">
        <lane id=":junction1_1_0" index="0" speed="13.89" length="20.80" shape="95.20,110.40 95.20,89.60"/>
        <lane id=":junction1_1_1" index="1" speed="13.89" length="20.80" shape="98.40,110.40 98.40,89.60"/>
    </edge>
    <edge id=":junction1_3" function="internal">
        <lane id=":junction1_3_0" index="0" speed="9.26" length="5.01" shape="98.40,110.40 99.11,105.44"/>
    </edge>
    <edge id=":junction1_4" function="internal">
        <lane id=":junction1_4_0" index="0" speed="3.65" length="1.44" shape="98.40,110.40 99.20,109.20"/>
    </edge>
    <edge id=":junction1_20" function="internal">
        <lane id=":junction1_20_0" index="0" speed="9.26" length="14.34" shape="99.11,105.44 99.15,105.15 101.40,101.40 105.15,99.15 110.40,98.40"/>
    </edge>
    <edge id=":junction1_21" function="internal">
        <lane id=":junction1_21_0" index="0" speed="3.65" length="3.23" shape="99.20,109.20 100.00,108.80 100.80,109.20 101.60,110.40"/>
    </edge>
    <edge id=":junction1_5" function="internal">
        <lane id=":junction1_5_0" index="0" speed="6.51" length="9.03" shape="110.40,104.80 107.95,105.15 106.20,106.20 105.15,107.95 104.80,110.40"/>
    </edge>
    <edge id=":junction1_6" function="internal">
        <lane id=":junction1_6_0" index="0" speed="13.89" length="20.80" shape="110.40,104.80 89.60,104.80"/>
        <lane id=":junction1_6_1" index="1" speed="13.89" length="20.80" shape="110.40,101.60 89.60,101.60"/>
    </edge>
    <edge id=":junction1_8" function="internal">
        <lane id=":junction1_8_0" index="0" speed="9.26" length="5.01" shape="110.40,101.60 105.44,100.89"/>
    </edge>
    <edge id=":junction1_9" function="internal">
        <lane id=":junction1_9_0" index="0" speed="3.65" length="1.44" shape="110.40,101.60 109.20,100.80"/>
    </edge>
    <edge id=":junction1_22" function="internal">
        <lane id=":junction1_22_0" index="0" speed="9.26" length="14.34" shape="105.44,100.89 105.15,100.85 101.40,98.60 99.15,94.85 98.40,89.60"/>
    </edge>
    <edge id=":junction1_23" function="internal">
        <lane id=":junction1_23_0" index="0" speed="3.65" length="3.23" shape="109.20,100.80 108.80,100.00 109.20,99.20 110.40,98.40"/>
    </edge>
    <edge id=":junction1_10" function="internal">
        <lane id=":junction1_10_0" index="0" speed="6.51" length="9.03" shape="104.80,89.60 105.15,92.05 106.20,93.80 107.95,94.85 110.40,95.20"/>
    </edge>
    <edge id=":junction1_11" function="internal">
        <lane id=":junction1_11_0" index="0" speed="13.89" length="20.80" shape="104.80,89.60 104.80,110.40"/>
        <lane id=":junction1_11_1" index="1" speed="13.89" length="20.80" shape="101.60,89.60 101.60,110.40"/>
    </edge>
    <edge id=":junction1_13" function="internal">
        <lane id=":junction1_13_0" index="0" speed="9.26" length="5.01" shape="101.60,89.60 100.89,94.56"/>
    </edge>
    <edge id=":junction1_14" function="internal">
        <lane id=":junction1_14_0" index="0" speed="3.65" length="1.44" shape="101.60,89.60 100.80,90.80"/>
    </edge>
    <edge id=":junction1_24" function="internal">
        <lane id=":junction1_24_0" index="0" speed="9.26" length="14.34" shape="100.89,94.56 100.85,94.85 98.60,98.60 94.85,100.85 89.60,101.60"/>
    </edge>
    <edge id=":junction1_25" function="internal">
        <lane id=":junction1_25_0" index="0" speed="3.65" length="3.23" shape="100.80,90.80 100.00,91.20 99.20,90.80 98.40,89.60"/>
    </edge>
    <edge id=":junction1_15" function="internal">
        <lane id=":junction1_15_0" index="0" speed="6.51" length="9.03" shape="89.60,95.20 92.05,94.85 93.80,93.80 94.85,92.05 95.20,89.60"/>
    </edge>
    <edge id=":junction1_16" function="internal">
        <lane id=":junction1_16_0" index="0" speed="13.89" length="20.80" shape="89.60,95.20 110.40,95.20"/>
        <lane id=":junction1_16_1" index="1" speed="13.89" length="20.80" shape="89.60,98.40 110.40,98.40"/>
    </edge>
    <edge id=":junction1_18" function="internal">
        <lane id=":junction1_18_0" index="0" speed="9.26" length="5.01" shape="89.60,98.40 94.56,99.11"/>
    </edge>
    <edge id=":junction1_19" function="internal">
        <lane id=":junction1_19_0" index="0" speed="3.65" length="1.44" shape="89.60,98.40 90.80,99.20"/>
    </edge>
    <edge id=":junction1_26" function="internal">
        <lane id=":junction1_26_0" index="0" speed="9.26" length="14.34" shape="94.56,99.11 94.85,99.15 98.60,101.40 100.85,105.15 101.60,110.40"/>
    </edge>
    <edge id=":junction1_27" function="internal">
        <lane id=":junction1_27_0" index="0" speed="3.65" length="3.23" shape="90.80,99.20 91.20,100.00 90.80,100.80 89.60,101.60"/>
    </edge>
    <edge id=":north_end_0" function="internal">
        <lane id=":north_end_0_0" index="0" speed="3.65" length="4.67" shape="101.60,200.00 100.80,201.20 100.00,201.60 99.20,201.20 98.40,200.00"/>
    </edge>
    <edge id=":south_end_0" function="internal">
        <lane id=":south_end_0_0" index="0" speed="3.65" length="4.67" shape="98.40,0.00 99.20,-1.20 100.00,-1.60 100.80,-1.20 101.60,0.00"/>
    </edge>
    <edge id=":west_end_0" function="internal">
        <lane id=":west_end_0_0" index="0" speed="3.65" length="4.67" shape="0.00,101.60 -1.20,100.80 -1.60,100.00 -1.20,99.20 0.00,98.40"/>
    </edge>

    <edge id="east_in" from="east_end" to="junction1" priority="-1">
        <lane id="east_in_0" index="0" speed="13.89" length="89.60" shape="200.00,104.80 110.40,104.80"/>
        <lane id="east_in_1" index="1" speed="13.89" length="89.60" shape="200.00,101.60 110.40,101.60"/>
    </edge>
    <edge id="east_out" from="junction1" to="east_end" priority="-1">
        <lane id="east_out_0" index="0" speed="13.89" length="89.60" shape="110.40,95.20 200.00,95.20"/>
        <lane id="east_out_1" index="1" speed="13.89" length="89.60" shape="110.40,98.40 200.00,98.40"/>
    </edge>
    <edge id="north_in" from="north_end" to="junction1" priority="-1">
        <lane id="north_in_0" index="0" speed="13.89" length="89.60" shape="95.20,200.00 95.20,110.40"/>
        <lane id="north_in_1" index="1" speed="13.89" length="89.60" shape="98.40,200.00 98.40,110.40"/>
    </edge>
    <edge id="north_out" from="junction1" to="north_end" priority="-1">
        <lane id="north_out_0" index="0" speed="13.89" length="89.60" shape="104.80,110.40 104.80,200.00"/>
        <lane id="north_out_1" index="1" speed="13.89" length="89.60" shape="101.60,110.40 101.60,200.00"/>
    </edge>
    <edge id="south_in" from="south_end" to="junction1" priority="-1">
        <lane id="south_in_0" index="0" speed="13.89" length="89.60" shape="104.80,0.00 104.80,89.60"/>
        <lane id="south_in_1" index="1" speed="13.89" length="89.60" shape="101.60,0.00 101.60,89.60"/>
    </edge>
    <edge id="south_out" from="junction1" to="south_end" priority="-1">
        <lane id="south_out_0" index="0" speed="13.89" length="89.60" shape="95.20,89.60 95.20,0.00"/>
        <lane id="south_out_1" index="1" speed="13.89" length="89.60" shape="98.40,89.60 98.40,0.00"/>
    </edge>
    <edge id="west_in" from="west_end" to="junction1" priority="-1">
        <lane id="west_in_0" index="0" speed="13.89" length="89.60" shape="0.00,95.20 89.60,95.20"/>
        <lane id="west_in_1" index="1" speed="13.89" length="89.60" shape="0.00,98.40 89.60,98.40"/>
    </edge>
    <edge id="west_out" from="junction1" to="west_end" priority="-1">
        <lane id="west_out_0" index="0" speed="13.89" length="89.60" shape="89.60,104.80 0.00,104.80"/>
        <lane id="west_out_1" index="1" speed="13.89" length="89.60" shape="89.60,101.60 0.00,101.60"/>
    </edge>

    <tlLogic id="junction1" type="static" programID="0" offset="0">
        <phase duration="42" state="GGGggrrrrrGGGggrrrrr"/>
        <phase duration="5"  state="yyyyyrrrrryyyyyrrrrr"/>
        <phase duration="42" state="rrrrrGGGggrrrrrGGGgg"/>
        <phase duration="5"  state="rrrrryyyyyrrrrryyyyy"/>
    </tlLogic>

    <junction id="east_end" type="priority" x="200.00" y="100.00" incLanes="east_out_0 east_out_1" intLanes=":east_end_0_0" shape="200.00,100.00 200.00,93.60 200.00,100.00">
        <request index="0" response="0" foes="0" cont="0"/>
    </junction>
    <junction id="junction1" type="traffic_light" x="100.00" y="100.00" incLanes="north_in_0 north_in_1 east_in_0 east_in_1 south_in_0 south_in_1 west_in_0 west_in_1" intLanes=":junction1_0_0 :junction1_1_0 :junction1_1_1 :junction1_20_0 :junction1_21_0 :junction1_5_0 :junction1_6_0 :junction1_6_1 :junction1_22_0 :junction1_23_0 :junction1_10_0 :junction1_11_0 :junction1_11_1 :junction1_24_0 :junction1_25_0 :junction1_15_0 :junction1_16_0 :junction1_16_1 :junction1_26_0 :junction1_27_0" shape="93.60,110.40 106.40,110.40 106.84,108.18 107.40,107.40 108.18,106.84 109.18,106.51 110.40,106.40 110.40,93.60 108.18,93.16 107.40,92.60 106.84,91.82 106.51,90.82 106.40,89.60 93.60,89.60 93.16,91.82 92.60,92.60 91.82,93.16 90.82,93.49 89.60,93.60 89.60,106.40 91.82,106.84 92.60,107.40 93.16,108.18 93.49,109.18">
        <request index="0"  response="00000000000000000000" foes="00000000000011000000" cont="0"/>
        <request index="1"  response="01000000000100000000" foes="01111110000111000000" cont="0"/>
        <request index="2"  response="01000000000100000000" foes="01111110000111000000" cont="0"/>
        <request index="3"  response="01000001100100000000" foes="01110001101111000000" cont="1"/>
        <request index="4"  response="01000001100000000000" foes="01000001100000000000" cont="1"/>
        <request index="5"  response="00000001100000000000" foes="00000001100000000000" cont="0"/>
        <request index="6"  response="00000011100000001111" foes="11000011100000001111" cont="0"/>
        <request index="7"  response="00000011100000001111" foes="11000011100000001111" cont="0"/>
        <request index="8"  response="00110011100000001110" foes="00110111100000001110" cont="1"/>
        <request index="9"  response="00110000000000001000" foes="00110000000000001000" cont="1"/>
        <request index="10" response="00000000000000000000" foes="00110000000000000000" cont="0"/>
        <request index="11" response="01000000000100000000" foes="01110000000111111000" cont="0"/>
        <request index="12" response="01000000000100000000" foes="01110000000111111000" cont="0"/>
        <request index="13" response="01000000000100000110" foes="11110000000111000110" cont="1"/>
        <request index="14" response="00000000000100000110" foes="00000000000100000110" cont="1"/>
        <request index="15" response="00000000000000000110" foes="00000000000000000110" cont="0"/>
        <request index="16" response="00000011110000001110" foes="00000011111100001110" cont="0"/>
        <request index="17" response="00000011110000001110" foes="00000011111100001110" cont="0"/>
        <request index="18" response="00000011100011001110" foes="00000011100011011110" cont="1"/>
        <request index="19" response="00000010000011000000" foes="00000010000011000000" cont="1"/>
    </junction>
    <junction id="north_end" type="priority" x="100.00" y="200.00" incLanes="north_out_0 north_out_1" intLanes=":north_end_0_0" shape="100.00,200.00 106.40,200.00 100.00,200.00">
        <request index="0" response="0" foes="0" cont="0"/>
    </junction>
    <junction id="south_end" type="priority" x="100.00" y="0.00" incLanes="south_out_0 south_out_1" intLanes=":south_end_0_0" shape="100.00,0.00 93.60,0.00 100.00,0.00">
        <request index="0" response="0" foes="0" cont="0"/>
    </junction>
    <junction id="west_end" type="priority" x="0.00" y="100.00" incLanes="west_out_0 west_out_1" intLanes=":west_end_0_0" shape="0.00,100.00 0.00,106.40 0.00,100.00">
        <request index="0" response="0" foes="0" cont="0"/>
    </junction>

    <junction id=":junction1_20_0" type="internal" x="99.11" y="105.44" incLanes=":junction1_3_0 south_in_0 south_in_1" intLanes=":junction1_6_0 :junction1_6_1 :junction1_8_0 :junction1_9_0 :junction1_10_0 :junction1_11_0 :junction1_11_1 :junction1_16_0 :junction1_16_1 :junction1_18_0"/>
    <junction id=":junction1_21_0" type="internal" x="99.20" y="109.20" incLanes=":junction1_4_0 east_in_0 south_in_0 south_in_1 west_in_1" intLanes=":junction1_5_0 :junction1_11_0 :junction1_11_1 :junction1_18_0"/>
    <junction id=":junction1_22_0" type="internal" x="105.44" y="100.89" incLanes=":junction1_8_0 west_in_0 west_in_1" intLanes=":junction1_1_0 :junction1_1_1 :junction1_3_0 :junction1_11_0 :junction1_11_1 :junction1_13_0 :junction1_14_0 :junction1_15_0 :junction1_16_0 :junction1_16_1"/>
    <junction id=":junction1_23_0" type="internal" x="109.20" y="100.80" incLanes=":junction1_9_0 north_in_1 south_in_0 west_in_0 west_in_1" intLanes=":junction1_3_0 :junction1_10_0 :junction1_16_0 :junction1_16_1"/>
    <junction id=":junction1_24_0" type="internal" x="100.89" y="94.56" incLanes=":junction1_13_0 north_in_0 north_in_1" intLanes=":junction1_0_0 :junction1_1_0 :junction1_1_1 :junction1_6_0 :junction1_6_1 :junction1_8_0 :junction1_16_0 :junction1_16_1 :junction1_18_0 :junction1_19_0"/>
    <junction id=":junction1_25_0" type="internal" x="100.80" y="90.80" incLanes=":junction1_14_0 east_in_1 north_in_0 north_in_1 west_in_0" intLanes=":junction1_1_0 :junction1_1_1 :junction1_8_0 :junction1_15_0"/>
    <junction id=":junction1_26_0" type="internal" x="94.56" y="99.11" incLanes=":junction1_18_0 east_in_0 east_in_1" intLanes=":junction1_1_0 :junction1_1_1 :junction1_3_0 :junction1_4_0 :junction1_5_0 :junction1_6_0 :junction1_6_1 :junction1_11_0 :junction1_11_1 :junction1_13_0"/>
    <junction id=":junction1_27_0" type="internal" x="90.80" y="99.20" incLanes=":junction1_19_0 east_in_0 east_in_1 north_in_0 south_in_1" intLanes=":junction1_0_0 :junction1_6_0 :junction1_6_1 :junction1_13_0"/>

    <connection from="east_in" to="north_out" fromLane="0" toLane="0" via=":junction1_5_0" tl="junction1" linkIndex="5" dir="r" state="o"/>
    <connection from="east_in" to="west_out" fromLane="0" toLane="0" via=":junction1_6_0" tl="junction1" linkIndex="6" dir="s" state="o"/>
    <connection from="east_in" to="west_out" fromLane="1" toLane="1" via=":junction1_6_1" tl="junction1" linkIndex="7" dir="s" state="o"/>
    <connection from="east_in" to="south_out" fromLane="1" toLane="1" via=":junction1_8_0" tl="junction1" linkIndex="8" dir="l" state="o"/>
    <connection from="east_in" to="east_out" fromLane="1" toLane="1" via=":junction1_9_0" tl="junction1" linkIndex="9" dir="t" state="o"/>
    <connection from="east_out" to="east_in" fromLane="1" toLane="1" via=":east_end_0_0" dir="t" state="M"/>
    <connection from="north_in" to="west_out" fromLane="0" toLane="0" via=":junction1_0_0" tl="junction1" linkIndex="0" dir="r" state="O"/>
    <connection from="north_in" to="south_out" fromLane="0" toLane="0" via=":junction1_1_0" tl="junction1" linkIndex="1" dir="s" state="O"/>
    <connection from="north_in" to="south_out" fromLane="1" toLane="1" via=":junction1_1_1" tl="junction1" linkIndex="2" dir="s" state="O"/>
    <connection from="north_in" to="east_out" fromLane="1" toLane="1" via=":junction1_3_0" tl="junction1" linkIndex="3" dir="l" state="o"/>
    <connection from="north_in" to="north_out" fromLane="1" toLane="1" via=":junction1_4_0" tl="junction1" linkIndex="4" dir="t" state="o"/>
    <connection from="north_out" to="north_in" fromLane="1" toLane="1" via=":north_end_0_0" dir="t" state="M"/>
    <connection from="south_in" to="east_out" fromLane="0" toLane="0" via=":junction1_10_0" tl="junction1" linkIndex="10" dir="r" state="O"/>
    <connection from="south_in" to="north_out" fromLane="0" toLane="0" via=":junction1_11_0" tl="junction1" linkIndex="11" dir="s" state="O"/>
    <connection from="south_in" to="north_out" fromLane="1" toLane="1" via=":junction1_11_1" tl="junction1" linkIndex="12" dir="s" state="O"/>
    <connection from="south_in" to="west_out" fromLane="1" toLane="1" via=":junction1_13_0" tl="junction1" linkIndex="13" dir="l" state="o"/>
    <connection from="south_in" to="south_out" fromLane="1" toLane="1" via=":junction1_14_0" tl="junction1" linkIndex="14" dir="t" state="o"/>
    <connection from="south_out" to="south_in" fromLane="1" toLane="1" via=":south_end_0_0" dir="t" state="M"/>
    <connection from="west_in" to="south_out" fromLane="0" toLane="0" via=":junction1_15_0" tl="junction1" linkIndex="15" dir="r" state="o"/>
    <connection from="west_in" to="east_out" fromLane="0" toLane="0" via=":junction1_16_0" tl="junction1" linkIndex="16" dir="s" state="o"/>
    <connection from="west_in" to="east_out" fromLane="1" toLane="1" via=":junction1_16_1" tl="junction1" linkIndex="17" dir="s" state="o"/>
    <connection from="west_in" to="north_out" fromLane="1" toLane="1" via=":junction1_18_0" tl="junction1" linkIndex="18" dir="l" state="o"/>
    <connection from="west_in" to="west_out" fromLane="1" toLane="1" via=":junction1_19_0" tl="junction1" linkIndex="19" dir="t" state="o"/>
    <connection from="west_out" to="west_in" fromLane="1" toLane="1" via=":west_end_0_0" dir="t" state="M"/>

    <connection from=":east_end_0" to="east_in" fromLane="0" toLane="1" dir="t" state="M"/>
    <connection from=":junction1_0" to="west_out" fromLane="0" toLane="0" dir="r" state="M"/>
    <connection from=":junction1_1" to="south_out" fromLane="0" toLane="0" dir="s" state="M"/>
    <connection from=":junction1_1" to="south_out" fromLane="1" toLane="1" dir="s" state="M"/>
    <connection from=":junction1_3" to="east_out" fromLane="0" toLane="1" via=":junction1_20_0" dir="l" state="m"/>
    <connection from=":junction1_20" to="east_out" fromLane="0" toLane="1" dir="l" state="M"/>
    <connection from=":junction1_4" to="north_out" fromLane="0" toLane="1" via=":junction1_21_0" dir="t" state="m"/>
    <connection from=":junction1_21" to="north_out" fromLane="0" toLane="1" dir="t" state="M"/>
    <connection from=":junction1_5" to="north_out" fromLane="0" toLane="0" dir="r" state="M"/>
    <connection from=":junction1_6" to="west_out" fromLane="0" toLane="0" dir="s" state="M"/>
    <connection from=":junction1_6" to="west_out" fromLane="1" toLane="1" dir="s" state="M"/>
    <connection from=":junction1_8" to="south_out" fromLane="0" toLane="1" via=":junction1_22_0" dir="l" state="m"/>
    <connection from=":junction1_22" to="south_out" fromLane="0" toLane="1" dir="l" state="M"/>
    <connection from=":junction1_9" to="east_out" fromLane="0" toLane="1" via=":junction1_23_0" dir="t" state="m"/>
    <connection from=":junction1_23" to="east_out" fromLane="0" toLane="1" dir="t" state="M"/>
    <connection from=":junction1_10" to="east_out" fromLane="0" toLane="0" dir="r" state="M"/>
    <connection from=":junction1_11" to="north_out" fromLane="0" toLane="0" dir="s" state="M"/>
    <connection from=":junction1_11" to="north_out" fromLane="1" toLane="1" dir="s" state="M"/>
    <connection from=":junction1_13" to="west_out" fromLane="0" toLane="1" via=":junction1_24_0" dir="l" state="m"/>
    <connection from=":junction1_24" to="west_out" fromLane="0" toLane="1" dir="l" state="M"/>
    <connection from=":junction1_14" to="south_out" fromLane="0" toLane="1" via=":junction1_25_0" dir="t" state="m"/>
    <connection from=":junction1_25" to="south_out" fromLane="0" toLane="1" dir="t" state="M"/>
    <connection from=":junction1_15" to="south_out" fromLane="0" toLane="0" dir="r" state="M"/>
    <connection from=":junction1_16" to="east_out" fromLane="0" toLane="0" dir="s" state="M"/>
    <connection from=":junction1_16" to="east_out" fromLane="1" toLane="1" dir="s" state="M"/>
    <connection from=":junction1_18" to="north_out" fromLane="0" toLane="1" via=":junction1_26_0" dir="l" state="m"/>
    <connection from=":junction1_26" to="north_out" fromLane="0" toLane="1" dir="l" state="M"/>
    <connection from=":junction1_19" to="west_out" fromLane="0" toLane="1" via=":junction1_27_0" dir="t" state="m"/>
    <connection from=":junction1_27" to="west_out" fromLane="0" toLane="1" dir="t" state="M"/>
    <connection from=":north_end_0" to="north_in" fromLane="0" toLane="1" dir="t" state="M"/>
    <connection from=":south_end_0" to="south_in" fromLane="0" toLane="1" dir="t" state="M"/>
    <connection from=":west_end_0" to="west_in" fromLane="0" toLane="1" dir="t" state="M"/>

</net>
